[General]
network = ContactTracing
#sim-time-limit = ${time=120}min
sim-time-limit = ${time=1}min
#seed-set = ${seed=1}
seed-set = ${seed=2307, 14498, 22909, 50582, 52778, 53090, 55245, 56497, 91267, 93413, 113514, 123437, 145443, 153498, 156305, 197417}
#seed-set = ${seed=204593, 218090, 223252, 237724, 246884, 250871, 255769, 268926, 273748, 283945, 290837, 309454, 314679, 325678, 338783, 344566}
#seed-set = ${seed=130207, 132361, 139160, 148749, 153587, 159921, 165285, 169590, 175826, 180215, 188066, 191583, 196841, 201502, 209337, 215392}
#seed-set = ${seed=229038, 238460, 241722, 250805, 256969, 261240, 267885, 271733, 279931, 285061, 290930, 299536, 301962, 310671, 315768, 322098}
#seed-set = ${seed=348292, 357951, 365827, 370916, 376144, 383218, 389388, 395602, 400914, 405132, 411159, 417135, 423101, 428227, 434312, 439255}
#seed-set = ${seed=442314, 446860, 450990, 455456, 460522, 465118, 468747, 472772, 477130, 481539, 485915, 490499, 494914, 499561, 503866, 508395}
#seed-set = ${seed=513197, 517716, 522282, 526853, 531420, 536173, 540474, 544996, 549399, 553746, 558410, 563020, 567694, 572219, 576740, 581419}
#seed-set = ${seed=586145, 590514, 594954, 599242, 603630, 607948, 612487, 616953, 621404, 625742, 630352, 634768, 639094, 643541, 648162, 652356}
#seed-set = ${seed=656819, 661137, 665451, 669778, 674099, 678602, 682913, 687233, 691649, 695854, 700311, 704526, 708968, 713340, 717661, 721848}
#seed-set = ${seed=726047, 730156, 734639, 738905, 743196, 747595, 751998, 756308, 760489, 764816, 769094, 773469, 777710, 782012, 786365, 790800}

# densidad poblacional cordoba!
ContactTracing.numNodes = 1329
**.mobility.initFromDisplayString = false
**.node*.mobility.constraintAreaMinX = 0m
**.node*.mobility.constraintAreaMinY = 0m
**.node*.mobility.constraintAreaMinZ = 0m
**.node*.mobility.constraintAreaMaxX = 757m
**.node*.mobility.constraintAreaMaxY = 757m
**.node*.mobility.constraintAreaMaxZ = 0m

**.node*.mobility.typename = "${model=LinearMobility}"
**.node*.mobility.initFromDisplayString = false

**.node*.mobility.angle = ${angle = 30} deg 
#**.node*.mobility.speed = ${speed = 0.5, 1, 2} mps
**.node*.mobility.speed = double(string(uniform(1.1,2.8))+"mps")
#**.node*.app.broadcastTime = ${0.4, 0.5..20 step 0.5}
**.node*.app.broadcastTime = ${0.4}
**.node*.app.logPosPeriod = 0.1
**.node*.app.dbName = "results_${seed}.db"

#**.nodes[0].app.logres = true
#**.nodes[0].app.logpos = true
**.node*.app.range = 2.0

ContactTracing.simName = ${"Nodos:1329,Area:757x757,DP aprox cordoba: 2320"}
ContactTracing.simDesc = ${"time:${time},mobility_model:${model},angle:${angle},speed:uniform(1.1,2.8)(entre caminata y trote)"}