[General]
network = ContactTracing
sim-time-limit = 2h

ContactTracing.numNodes = 2

**.constraintAreaMinX = 0m
**.constraintAreaMinY = 0m
**.constraintAreaMinZ = 0m
**.constraintAreaMaxX = 5m
**.constraintAreaMaxY = 5m
**.constraintAreaMaxZ = 0m
**.updateInterval = 0.1s # test with 0s too, and let getCurrentPosition update the display string from a test module

**.mobility.initFromDisplayString = false

**.node*.mobility.typename = "LinearMobility"
**.node*.mobility.initFromDisplayString = false

**.node*.mobility.angle = 30deg 
**.node*.mobility.speed = 1mps
**.node*.app.broadcastTime = ${0.5..10 step 0.1}
**.node*.app.windowTimeThreshold = 5
**.node*.app.logPosPeriod = 0.1

**.nodes[0].app.logres = true

**.node*.app.range = 2.0